[TITLE]
RS Puram Water Network - Positive Pressure Resolved (Diameters in mm)

[JUNCTIONS]
;ID     Elevation     Demand   Pattern
 J2     410.5        2.29     1
 J3     391.5        2.44     1
 J4     395.5        2.34     1
 J7     398.0        1.90     1
 J8     398.0        2.47     1
 J11    403.5        2.48     1
 J13    391.5        2.43     1
 J15    393.8        2.40     1
 J16    399.8        4.07     1
 J17    405.9        2.51     1
 J18    396.6        2.33     1
 J19    401.9        1.91     1
 J20    410.5        3.96     1
 J21    390.3        1.97     1
 J22    389.6        2.42     1
 J23    410.0        3.99     1
 J24    406.7        3.86     1
 J25    388.1        2.54     1
 J26    411.0        2.51     1
 J27    388.7        2.24     1
 J28    391.5        1.96     1
 J30    393.8        2.54     1
 J32    398.8        1.92     1
 J33    393.8        3.84     1
 J34    389.6        2.05     1
 J35    395.8        2.32     1
 J36    401.9        1.96     1
 J37    403.5        4.06     1
 J38    411.0        1.91     1
 J39    406.7        2.54     1
 J40    396.6        2.38     1
 J42    388.7        2.03     1

[RESERVOIRS]
;ID       Head        Pattern
 J1        495.0      ;

[PIPES]
;ID Node1 Node2 Length Diameter Roughness MinorLoss Status
P1 J13 J15 1006.34 300 130 0 Open
P2 J15 J11 522.53 200 140 0 Open
P4 J7  J8  119.61 200 140 0 Open
P5 J1  J2  593.73 300 140 0 Open
P6 J3  J4  595.98 200 140 0 Open
P7 J28 J30 622.95 200 140 0 Open
P8 J26 J24 536.49 200 140 0 Open
P9 J25 J26 677.24 300 130 0 Open
P10 J27 J20 378.10 200 140 0 Open
P11 J21 J22 186.25 200 140 0 Open
P12 J23 J16 285.22 200 140 0 Open
P13 J17 J18 196.71 200 140 0 Open
P14 J19 J34 611.75 200 140 0 Open
P15 J40 J42 843.48 300 130 0 Open
P16 J42 J35 239.72 200 140 0 Open
P17 J36 J37 193.50 200 140 0 Open
P18 J38 J32 186.11 200 140 0 Open
P19 J33 J34 849.80 300 130 0 Open

; Minimal connecting pipes
P20 J2  J4   380  200 140 0 Open
P21 J2  J8   750  200 140 0 Open
P22 J2  J11  390  200 140 0 Open
P23 J4  J23  400  200 140 0 Open
P24 J23 J18  110  200 140 0 Open
P25 J13 J19   10  150 140 0 Open
P26 J17 J27  320  150 140 0 Open
P27 J20 J21  210  150 140 0 Open
P28 J39 J24   10  150 140 0 Open
P29 J23 J30  100  150 140 0 Open
P30 J8  J38  230  200 140 0 Open
P31 J8  J33  160  200 140 0 Open
P32 J11 J42   10  150 140 0 Open
P33 J8  J36   10  150 140 0 Open
P34 J39 J40   10  150 140 0 Open

[COORDINATES]
;Node      X-Coord    Y-Coord   
J1   -0.6594    0.8350
J2   -0.4085   -0.5053
J3   -0.1458    0.7729
J4   -0.0251   -0.4505
J7   -1.2124   -0.0749
J8   -0.9544    0.0147
J11  -0.8027   -0.5089
J13   0.8027    0.8923
J15  -1.1432    0.6379
J16   1.0285   -0.3333
J17  -0.0409   -0.3046
J18   0.3540   -0.2759
J19   0.8057    0.8953
J20   0.7848    0.0824
J21   0.5980    0.0137
J22   0.6757   -0.3552
J23   0.3639   -0.3870
J24   1.1183   -0.4770
J25  -1.0858    0.4515
J26   0.4480    0.6415
J27  -0.4985    0.0262
J28   0.3337    0.8320
J30   0.3655   -0.4889
J32  -0.4695   -0.1935
J33  -0.8632    0.2570
J34   0.9376    0.3110
J35  -1.3259   -0.3404
J36  -0.9551    0.0145
J37  -0.5156    0.0572
J38  -0.8923   -0.2129
J39   1.1181   -0.4766
J40   1.1182   -0.4767
J42  -0.8063   -0.5125

[TIMES]
DURATION 24:00:00
HYDRAULIC TIMESTEP 01:00:00
REPORT TIMESTEP 01:00:00
START CLOCKTIME 00:00:00 AM

[OPTIONS]
UNITS LPS
HEADLOSS H-W
TRIALS 200
ACCURACY 0.001
UNBALANCED STOP

[PATTERNS]
;ID    Multipliers
1      1.0

[END]
