[TITLE]
;; KK Nagar Water Network

[JUNCTIONS]
;ID	Elevation	Demand	Pattern
J2	15.97	3.861	Pattern1
J3	20.46	5.791	Pattern2
J4	10.88	3.861	Pattern1
J5	13.92	3.861	Pattern3
J6	15.71	3.861	Pattern1
J7	17.30	5.791 	Pattern2
J8	12.51	3.861 	Pattern1
J9	14.48	3.861 	Pattern3
J10	19.24	3.861 	Pattern2
J11	15.24	3.861 	Pattern1
J12	17.95	3.861 	Pattern3
J13	13.96	3.861 	Pattern1
J14	12.12	3.861 	Pattern1
J15	16.03	7.721 	Pattern3
J16	15.54	3.861 	Pattern1
J17	15.18	3.861 	Pattern1
J18	14.61	3.861 	Pattern3
J19	19.01	3.861 	Pattern2
J20	13.03	3.861 	Pattern1
J21	15.21	3.861 	Pattern3
J22	17.68	3.861 	Pattern2
J23	15.52	3.861 	Pattern1
J24	19.74	3.861 	Pattern3
J25	18.72	5.791 	Pattern3
J26	16.73	3.861 	Pattern1
J27	20.78	3.861 	Pattern2
J28	16.20	3.861 	Pattern3
J29	12.67	3.861 	Pattern1
J30	15.51	3.861 	Pattern1
J31	12.45	5.791 	Pattern3
J32	17.68	3.861 	Pattern2

[RESERVOIRS]
;ID	Head	Pattern
J1	144.02

[PIPES]
;ID	Node1	Node2	Length	Diameter	Roughness	MinorLoss	Status
P1	J1	J4	277.21	300	110.0	0.00	OPEN
P2	J31	J18	747.05	300	110.0	0.00	OPEN
P3	J18	J21	352.32	300	110.0	0.00	OPEN
P4	J18	J2	321.07	150	110.0	0.00	OPEN
P5	J14	J28	207.39	150	110.0	0.00	OPEN
P6	J28	J3	225.60	150	110.0	0.00	OPEN
P7	J3	J24	109.06	150	110.0	0.00	OPEN
P8	J24	J2	177.66	150	110.0	0.00	OPEN
P9	J17	J13	159.35	150	110.0	0.00	OPEN
P10	J13	J8	448.78	150	110.0	0.00	OPEN
P11	J4	J12	245.81	150	110.0	0.00	OPEN
P12	J12	J5	403.37	150	110.0	0.00	OPEN
P13	J20	J9	286.95	150	110.0	0.00	OPEN
P14	J9	J14	690.73	150	110.0	0.00	OPEN
P15	J5	J20	323.33	150	110.0	0.00	OPEN
P16	J2	J32	524.04	150	110.0	0.00	OPEN
P17	J11	J29	283.84	150	110.0	0.00	OPEN
P18	J5	J6	251.14	150	110.0	0.00	OPEN
P19	J6	J7	125.44	150	110.0	0.00	OPEN
P20	J7	J30	97.92	150	110.0	0.00	OPEN
P21	J30	J8	292.32	150	110.0	0.00	OPEN
P22	J29	J8	347.60	150	110.0	0.00	OPEN
P23	J3	J10	661.07	200	110.0	0.00	OPEN
P24	J10	J19	285.54	150	110.0	0.00	OPEN
P25	J9	J27	251.06	150	110.0	0.00	OPEN
P26	J27	J10	224.08	150	110.0	0.00	OPEN
P27	J10	J11	288.73	150	110.0	0.00	OPEN
P28	J12	J15	377.71	150	110.0	0.00	OPEN
P29	J15	J13	598.89	150	110.0	0.00	OPEN
P30	J7	J15	399.17	150	110.0	0.00	OPEN
P31	J16	J17	645.47	150	110.0	0.00	OPEN
P32	J22	J21	892.55	200	110.0	0.00	OPEN
P33	J23	J14	165.99	150	110.0	0.00	OPEN
P34	J15	J16	279.81	150	110.0	0.00	OPEN
P35	J19	J26	222.45	150	110.0	0.00	OPEN
P36	J26	J20	250.17	150	110.0	0.00	OPEN
P37	J25	J22	385.18	150	110.0	0.00	OPEN
P38	J22	J23	200.69	150	110.0	0.00	OPEN
P39	J24	J25	122.79	150	110.0	0.00	OPEN
P40	J26	J27	287.20	150	110.0	0.00	OPEN
P41	J27	J28	667.02	200	110.0	0.00	OPEN
P42	J19	J29	292.20	150	110.0	0.00	OPEN
P43	J19	J30	328.31	150	110.0	0.00	OPEN
P44	J32	J31	412.13	150	110.0	0.00	OPEN
P45	J6	J26	325.76	150	110.0	0.00	OPEN
P46	J32	J11	141.24	150	110.0	0.00	OPEN


[PATTERNS]
;ID        Multipliers 
Pattern1   0.30 0.30 0.40 0.50 0.70 1.00 1.20 1.00 0.80 0.60 0.50 0.40 0.40 0.40 0.40 0.50 0.70 1.00 1.20 1.10 0.90 0.70 0.50 0.40   ; Residential
Pattern2   0.20 0.20 0.30 0.40 0.60 0.90 1.10 1.20 1.30 1.20 1.10 1.00 0.80 0.80 0.90 1.10 1.30 1.40 1.20 1.00 0.80 0.60 0.40 0.30   ; Commercial/office
Pattern3   0.25 0.25 0.30 0.40 0.55 0.75 0.95 1.00 1.05 1.00 0.90 0.85 0.80 0.80 0.85 0.90 1.00 1.10 1.05 0.95 0.80 0.60 0.50 0.40   ; Mixed/average


[COORDINATES]
;ID	X-Coord	Y-Coord
J1	414291.86	1440835.60
J2	412583.33	1442184.94
J3	412543.34	1441901.33
J4	414339.98	1441108.49
J5	413728.40	1441241.10
J6	413769.02	1441488.86
J7	413788.28	1441612.78
J8	413864.01	1441992.63
J9	413125.15	1441332.20
J10	413196.64	1441801.78
J11	413240.26	1442087.10
J12	414127.11	1441180.79
J13	414269.17	1442146.63
J14	412470.43	1441475.65
J15	414182.98	1441554.22
J16	414459.54	1441512.26
J17	414427.90	1442156.72
J18	412458.80	1442428.59
J19	413478.67	1441757.74
J20	413408.96	1441290.44
J21	412107.38	1442411.45
J22	412335.90	1441676.98
J23	412304.56	1441478.92
J24	412557.30	1442009.46
J25	412435.32	1441995.71
J26	413447.03	1441537.61
J27	413163.11	1441580.29
J28	412503.70	1441679.43
J29	413521.04	1442046.47
J30	413803.31	1441709.50
J31	413184.18	1442511.46
J32	413100.66	1442108.20


[OPTIONS]
 UNITS              LPS
 HEADLOSS           H-W
 SPECIFIC GRAVITY   1.0
 VISCOSITY          1.0
 TRIALS             40
 ACCURACY           0.001
 UNBALANCED         CONTINUE 10
 PATTERN            Pattern1